Version 4
SHEET 1 4100 680
WIRE -528 -1472 -736 -1472
WIRE -368 -1472 -528 -1472
WIRE -96 -1472 -368 -1472
WIRE 400 -1472 -96 -1472
WIRE 528 -1472 400 -1472
WIRE 752 -1472 528 -1472
WIRE 1008 -1472 752 -1472
WIRE 1120 -1472 1008 -1472
WIRE 528 -1424 528 -1472
WIRE 752 -1424 752 -1472
WIRE 1008 -1424 1008 -1472
WIRE 1120 -1424 1120 -1472
WIRE 400 -1408 400 -1472
WIRE -736 -1392 -736 -1472
WIRE -528 -1392 -528 -1472
WIRE -368 -1392 -368 -1472
WIRE -96 -1328 -96 -1472
WIRE 400 -1312 400 -1344
WIRE 1008 -1312 1008 -1344
WIRE -736 -1280 -736 -1312
WIRE -528 -1280 -528 -1328
WIRE -368 -1280 -368 -1328
WIRE 528 -1264 528 -1344
WIRE 944 -1264 528 -1264
WIRE -96 -1216 -96 -1248
WIRE 0 -1216 -96 -1216
WIRE 1136 -1216 1008 -1216
WIRE 1296 -1216 1136 -1216
WIRE 1456 -1216 1296 -1216
WIRE 1648 -1216 1456 -1216
WIRE 528 -1184 528 -1264
WIRE 752 -1184 752 -1344
WIRE -96 -1168 -96 -1216
WIRE 0 -1136 0 -1216
WIRE 0 -1136 -64 -1136
WIRE 112 -1136 0 -1136
WIRE 160 -1136 112 -1136
WIRE 272 -1136 240 -1136
WIRE 368 -1136 272 -1136
WIRE 464 -1136 368 -1136
WIRE 880 -1136 816 -1136
WIRE 1296 -1136 1296 -1216
WIRE 1456 -1136 1456 -1216
WIRE 880 -1104 880 -1136
WIRE 1008 -1104 1008 -1136
WIRE 1008 -1104 880 -1104
WIRE 1136 -1104 1136 -1152
WIRE 1136 -1104 1008 -1104
WIRE 112 -1088 112 -1136
WIRE 272 -1088 272 -1136
WIRE 368 -1088 368 -1136
WIRE 1008 -1072 1008 -1104
WIRE 528 -1056 528 -1088
WIRE 640 -1056 528 -1056
WIRE 752 -1056 752 -1088
WIRE 752 -1056 640 -1056
WIRE 1296 -1056 1296 -1072
WIRE 1456 -1056 1456 -1072
WIRE -96 -1040 -96 -1104
WIRE 640 -1008 640 -1056
WIRE 112 -992 112 -1024
WIRE 272 -992 272 -1024
WIRE 368 -992 368 -1024
WIRE 1008 -960 1008 -992
WIRE 768 -432 608 -432
WIRE 976 -432 864 -432
WIRE 1088 -432 1056 -432
WIRE 816 -336 816 -368
WIRE 912 -336 816 -336
WIRE -224 -256 -608 -256
WIRE -96 -256 -224 -256
WIRE 16 -256 -96 -256
WIRE 176 -256 176 -320
WIRE 176 -256 96 -256
WIRE 288 -256 288 -320
WIRE 288 -256 176 -256
WIRE 480 -256 288 -256
WIRE 608 -256 608 -432
WIRE 608 -256 480 -256
WIRE 688 -256 608 -256
WIRE 704 -256 688 -256
WIRE 976 -256 800 -256
WIRE 1088 -256 1088 -432
WIRE 1088 -256 1056 -256
WIRE 2032 -256 1088 -256
WIRE 2352 -256 2352 -304
WIRE 2352 -256 2032 -256
WIRE 2448 -256 2352 -256
WIRE 2816 -256 2448 -256
WIRE 2928 -256 2816 -256
WIRE 3024 -256 2928 -256
WIRE 3072 -256 3024 -256
WIRE 3456 -256 3152 -256
WIRE 3568 -256 3456 -256
WIRE 3792 -256 3568 -256
WIRE 3952 -256 3792 -256
WIRE 4016 -256 3952 -256
WIRE 3456 -240 3456 -256
WIRE 3568 -240 3568 -256
WIRE 3792 -240 3792 -256
WIRE 608 -224 608 -256
WIRE 2448 -208 2448 -256
WIRE 2816 -208 2816 -256
WIRE 2928 -208 2928 -256
WIRE -608 -192 -608 -256
WIRE -224 -192 -224 -256
WIRE 176 -192 176 -256
WIRE 288 -192 288 -256
WIRE 1088 -192 1088 -256
WIRE 2032 -192 2032 -256
WIRE 2128 -192 2032 -192
WIRE 2352 -192 2352 -256
WIRE 480 -160 480 -256
WIRE 752 -160 752 -192
WIRE 912 -160 912 -336
WIRE 912 -160 752 -160
WIRE 2032 -144 2032 -192
WIRE 2128 -144 2128 -192
WIRE 3568 -128 3568 -160
WIRE 3792 -128 3792 -176
WIRE 4016 -128 4016 -256
WIRE 608 -112 608 -144
WIRE 608 -112 544 -112
WIRE 3120 -112 3120 -176
WIRE 176 -96 176 -128
WIRE 288 -96 288 -128
WIRE 688 -96 688 -256
WIRE 816 -96 688 -96
WIRE 912 -96 912 -160
WIRE 2448 -96 2448 -144
WIRE 2816 -96 2816 -128
WIRE 2928 -96 2928 -144
WIRE 2928 -96 2816 -96
WIRE 3088 -96 2928 -96
WIRE 2352 -80 2352 -128
WIRE 3264 -80 3152 -80
WIRE 3360 -80 3264 -80
WIRE 3456 -80 3456 -160
WIRE 3456 -80 3424 -80
WIRE 3504 -80 3456 -80
WIRE -224 -64 -224 -112
WIRE 3088 -64 3040 -64
WIRE -608 -48 -608 -112
WIRE 2816 -48 2816 -96
WIRE 608 -32 608 -112
WIRE 1088 -32 1088 -112
WIRE 3024 -16 3024 -256
WIRE 3120 -16 3120 -48
WIRE 3120 -16 3024 -16
WIRE 2032 0 2032 -64
WIRE 2128 0 2128 -80
WIRE 2128 0 2032 0
WIRE 480 16 480 -64
WIRE 544 16 480 16
WIRE 4016 16 4016 -48
WIRE 3040 32 3040 -64
WIRE 3344 32 3040 32
WIRE 3568 32 3568 -32
WIRE 3568 32 3424 32
WIRE 864 64 864 -32
WIRE 864 64 608 64
WIRE 928 64 864 64
WIRE 3040 64 3040 32
WIRE 3264 64 3264 -80
WIRE 3456 64 3456 -80
WIRE 3568 64 3568 32
WIRE 1648 80 1648 -1216
WIRE 480 96 480 16
WIRE 1744 96 1680 96
WIRE 2816 96 2816 32
WIRE 1088 112 1088 32
WIRE 1088 112 992 112
WIRE 1376 112 1088 112
WIRE 1408 112 1376 112
WIRE 1520 112 1488 112
WIRE 1616 112 1520 112
WIRE 2032 128 2032 0
WIRE 2032 128 1680 128
WIRE 752 176 688 176
WIRE 928 176 928 160
WIRE 928 176 832 176
WIRE 1648 176 1648 144
WIRE 1744 176 1744 96
WIRE 3040 176 3040 144
WIRE 3264 176 3264 144
WIRE 3264 176 3040 176
WIRE 3456 176 3456 144
WIRE 3568 176 3568 144
WIRE 928 192 928 176
WIRE 1088 192 1088 112
WIRE 3040 192 3040 176
WIRE 480 208 480 176
WIRE 1376 208 1376 112
WIRE 1424 208 1376 208
WIRE 1520 208 1520 112
WIRE 1520 208 1488 208
WIRE 688 224 688 176
WIRE 928 304 928 272
WIRE 1088 304 1088 256
WIRE 1744 304 1744 256
WIRE 3040 304 3040 256
WIRE 688 320 688 288
FLAG 176 -96 0
FLAG 288 -96 0
FLAG 480 208 0
FLAG 928 304 0
FLAG 688 320 0
FLAG 1088 304 0
FLAG 1648 176 0
FLAG 2352 -80 0
FLAG 3952 -256 OUT
FLAG -96 -256 VIN
FLAG 4016 16 0
FLAG 176 -384 0
FLAG 288 -384 0
FLAG 2352 -368 0
FLAG -224 -64 0
FLAG 2448 -96 0
FLAG 1744 304 0
FLAG 2816 96 0
FLAG 3040 304 0
FLAG 3792 -128 0
FLAG 3456 176 0
FLAG 3568 176 0
FLAG 3120 -176 0
FLAG -608 -48 0
FLAG -368 -1280 0
FLAG -736 -1280 0
FLAG 1456 -1056 0
FLAG -528 -1280 0
FLAG 1296 -1056 0
FLAG 1008 -960 0
FLAG 640 -928 0
FLAG 112 -992 0
FLAG 272 -992 0
FLAG 368 -992 0
FLAG 1120 -1360 0
FLAG -96 -1040 0
FLAG 400 -1312 0
SYMBOL voltage -224 -208 R0
WINDOW 3 -294 23 Left 2
WINDOW 123 -296 62 Left 2
WINDOW 39 -293 101 Left 2
SYMATTR Value SINE(10 1 100000)
SYMATTR Value2 AC 1 180
SYMATTR SpiceLine Rser=0.001
SYMATTR InstName V1
SYMBOL res 112 -272 R90
WINDOW 0 0 56 VBottom 2
WINDOW 3 32 56 VTop 2
SYMATTR InstName R1
SYMATTR Value 1
SYMATTR SpiceLine tol=1 pwr=5
SYMBOL polcap 160 -192 R0
WINDOW 3 24 56 Left 2
SYMATTR Value 390µ
SYMATTR InstName C1
SYMATTR Description Capacitor
SYMATTR Type cap
SYMATTR SpiceLine V=50 Irms=1.44 Rser=0.048 Lser=0 mfg="Nichicon" pn="UPL1H391MRH" type="Al electrolytic"
SYMBOL cap 272 -192 R0
SYMATTR InstName C2
SYMATTR Value 10µ
SYMATTR SpiceLine V=25 Irms=0 Rser=0 Lser=0 mfg="Murata" pn="GRM21BZ71E106KE15" type="X7R"
SYMBOL pnp 544 -64 R180
SYMATTR InstName Q1
SYMATTR Value 2N3906
SYMBOL res 592 -240 R0
SYMATTR InstName R2
SYMATTR Value 680
SYMATTR SpiceLine tol=1 pwr=0.1
SYMBOL pnp 544 64 M180
SYMATTR InstName Q2
SYMATTR Value 2N3906
SYMBOL res 464 80 R0
SYMATTR InstName R3
SYMATTR Value 20K
SYMATTR SpiceLine tol=1 pwr=0.1
SYMBOL npn 816 -32 R270
SYMATTR InstName Q3
SYMATTR Value 2N3904
SYMBOL npn 704 -192 R270
SYMATTR InstName Q4
SYMATTR Value 2N3055
SYMBOL npn 992 64 M0
SYMATTR InstName Q5
SYMATTR Value 2N3904
SYMBOL res 912 176 R0
SYMATTR InstName R4
SYMATTR Value 1K
SYMATTR SpiceLine tol=1 pwr=0.1
SYMBOL res 848 160 R90
WINDOW 0 0 56 VBottom 2
WINDOW 3 32 56 VTop 2
SYMATTR InstName R5
SYMATTR Value 10
SYMATTR SpiceLine tol=1 pwr=0.1
SYMBOL polcap 672 224 R0
WINDOW 3 24 56 Left 2
SYMATTR Value 22µ
SYMATTR InstName C3
SYMATTR Description Capacitor
SYMATTR Type cap
SYMATTR SpiceLine V=25 Irms=60m Rser=2.4 Lser=0 mfg="Nichicon" pn="UPR1E220MAH" type="Al electrolytic"
SYMBOL diode 1104 256 R180
WINDOW 0 24 64 Left 2
WINDOW 3 24 0 Left 2
SYMATTR InstName D1
SYMATTR Value 1N4148
SYMBOL cap 1072 -32 R0
SYMATTR InstName C4
SYMATTR Value 270p
SYMATTR SpiceLine V=25 Irms=0 Rser=0 Lser=0 mfg="Murata" pn="GRM0335C1E271JA01" type="C0G"
SYMBOL res 1072 -208 R0
SYMATTR InstName R6
SYMATTR Value 270
SYMATTR SpiceLine tol=1 pwr=0.1
SYMBOL OpAmps\\OP07 1648 48 M0
SYMATTR InstName U1
SYMBOL res 1504 96 R90
WINDOW 0 0 56 VBottom 2
WINDOW 3 32 56 VTop 2
SYMATTR InstName R7
SYMATTR Value 511
SYMATTR SpiceLine tol=1 pwr=0.1
SYMBOL res 2016 -160 R0
SYMATTR InstName R12
SYMATTR Value 1K
SYMATTR SpiceLine tol=1 pwr=0.1
SYMBOL polcap 2336 -192 R0
WINDOW 3 24 56 Left 2
SYMATTR Value 390µ
SYMATTR InstName C8
SYMATTR Description Capacitor
SYMATTR Type cap
SYMATTR SpiceLine V=50 Irms=1.44 Rser=0.048 Lser=0 mfg="Nichicon" pn="UPL1H391MRH" type="Al electrolytic"
SYMBOL res 4000 -144 R0
SYMATTR InstName R13
SYMATTR Value 2
SYMATTR SpiceLine tol=1 pwr=100
SYMBOL polcap 192 -320 R180
WINDOW 0 24 57 Left 2
WINDOW 3 24 8 Left 2
SYMATTR InstName C9
SYMATTR Value 2200µ
SYMATTR Description Capacitor
SYMATTR Type cap
SYMATTR SpiceLine V=50 Irms=2.56 Rser=0.024 Lser=0 mfg="Nichicon" pn="UPL1H222MRH" type="Al electrolytic"
SYMBOL polcap 304 -320 R180
WINDOW 0 24 57 Left 2
WINDOW 3 24 8 Left 2
SYMATTR InstName C10
SYMATTR Value 4700µ
SYMATTR Description Capacitor
SYMATTR Type cap
SYMATTR SpiceLine V=50 Irms=3.355 Rser=0.004 Lser=14.3824n mfg="Würth Elektronik" pn="860010683032 WCAP-ATG8 22x41" type="Al electrolytic"
SYMBOL polcap 2368 -304 R180
WINDOW 0 24 57 Left 2
WINDOW 3 24 8 Left 2
SYMATTR InstName C11
SYMATTR Value 6800µ
SYMATTR Description Capacitor
SYMATTR Type cap
SYMATTR SpiceLine V=63 Irms=4.44 Rser=0.04455 Lser=19.1035n mfg="Würth Elektronik" pn="861220786020 WCAP-AIE8 35x30" type="Al electrolytic"
SYMBOL npn 768 -368 R270
SYMATTR InstName Q6
SYMATTR Value 2N3055
SYMBOL res 1072 -272 R90
WINDOW 0 0 56 VBottom 2
WINDOW 3 32 56 VTop 2
SYMATTR InstName R14
SYMATTR Value 0.22
SYMATTR SpiceLine tol=1 pwr=5
SYMBOL res 1072 -448 R90
WINDOW 0 0 56 VBottom 2
WINDOW 3 32 56 VTop 2
SYMATTR InstName R15
SYMATTR Value 0.22
SYMATTR SpiceLine tol=1 pwr=5
SYMBOL cap 2432 -208 R0
SYMATTR InstName C12
SYMATTR Value 10µ
SYMATTR SpiceLine V=25 Irms=0 Rser=0 Lser=0 mfg="Murata" pn="GRM21BZ71E106KE15" type="X7R"
SYMBOL voltage 1744 160 R0
WINDOW 123 0 0 Left 0
WINDOW 39 0 0 Left 0
SYMATTR InstName V2
SYMATTR Value 4.096
SYMBOL res 2800 -224 R0
SYMATTR InstName R8
SYMATTR Value 10K
SYMATTR SpiceLine tol=1 pwr=0.1
SYMBOL res 2800 -64 R0
SYMATTR InstName R9
SYMATTR Value 10K
SYMATTR SpiceLine tol=1 pwr=0.1
SYMBOL polcap 2912 -208 R0
WINDOW 3 24 56 Left 2
SYMATTR Value 22µ
SYMATTR InstName C5
SYMATTR Description Capacitor
SYMATTR Type cap
SYMATTR SpiceLine V=25 Irms=60m Rser=2.4 Lser=0 mfg="Nichicon" pn="UPR1E220MAH" type="Al electrolytic"
SYMBOL res 3024 48 R0
SYMATTR InstName R16
SYMATTR Value 1K
SYMATTR SpiceLine tol=1 pwr=0.1
SYMBOL polcap 3024 192 R0
WINDOW 3 24 56 Left 2
SYMATTR Value 100µ
SYMATTR InstName C13
SYMATTR Description Capacitor
SYMATTR Type cap
SYMATTR SpiceLine V=35 Irms=460m Rser=0.16 Lser=0 mfg="Nichicon" pn="UPL1V101MPH" type="Al electrolytic"
SYMBOL res 3248 48 R0
SYMATTR InstName R17
SYMATTR Value 47K
SYMATTR SpiceLine tol=1 pwr=0.1
SYMBOL OpAmps\\OP07 3120 -16 M180
SYMATTR InstName U2
SYMBOL res 3056 -272 M90
WINDOW 0 0 56 VBottom 2
WINDOW 3 32 56 VTop 2
SYMATTR InstName R18
SYMATTR Value 0.05
SYMATTR SpiceLine tol=1 pwr=10
SYMBOL polcap 3360 -96 M90
WINDOW 0 0 32 VBottom 2
WINDOW 3 32 32 VTop 2
SYMATTR InstName C14
SYMATTR Value 100µ
SYMATTR Description Capacitor
SYMATTR Type cap
SYMATTR SpiceLine V=35 Irms=460m Rser=0.16 Lser=0 mfg="Nichicon" pn="UPL1V101MPH" type="Al electrolytic"
SYMBOL npn 3504 -128 R0
SYMATTR InstName Q7
SYMATTR Value 2N4401
SYMBOL res 3552 48 R0
SYMATTR InstName R19
SYMATTR Value 15
SYMATTR SpiceLine tol=1 pwr=0.1
SYMBOL res 3440 16 R90
WINDOW 0 0 56 VBottom 2
WINDOW 3 32 56 VTop 2
SYMATTR InstName R20
SYMATTR Value 301K
SYMATTR SpiceLine tol=1 pwr=0.1
SYMBOL res 3552 -256 R0
SYMATTR InstName R21
SYMATTR Value 220
SYMATTR SpiceLine tol=1 pwr=0.1
SYMBOL res 3440 -256 R0
SYMATTR InstName R22
SYMATTR Value 4.3K
SYMATTR SpiceLine tol=1 pwr=0.1
SYMBOL polcap 3776 -240 R0
WINDOW 3 24 56 Left 2
SYMATTR Value 100µ
SYMATTR InstName C15
SYMATTR Description Capacitor
SYMATTR Type cap
SYMATTR SpiceLine V=35 Irms=460m Rser=0.16 Lser=0 mfg="Nichicon" pn="UPL1V101MPH" type="Al electrolytic"
SYMBOL res 3440 48 R0
SYMATTR InstName R23
SYMATTR Value 470
SYMATTR SpiceLine tol=1 pwr=0.1
SYMBOL cap 1488 192 R90
WINDOW 0 0 32 VBottom 2
WINDOW 3 32 32 VTop 2
SYMATTR InstName C16
SYMATTR Value 0.001µ
SYMATTR SpiceLine V=1K Irms=0 Rser=0 Lser=0 mfg="Murata" pn="GCM31C5C3A102JX03" type="C0G"
SYMBOL voltage -608 -208 R0
WINDOW 3 -294 23 Left 2
WINDOW 123 -296 62 Left 2
WINDOW 39 -293 101 Left 2
SYMATTR Value SINE(12 1.2 57000)
SYMATTR Value2 AC 1 0
SYMATTR SpiceLine Rser=0.001
SYMATTR InstName V3
SYMBOL cap 2112 -144 R0
SYMATTR InstName C6
SYMATTR Value 270p
SYMATTR SpiceLine V=25 Irms=0 Rser=0 Lser=0 mfg="Murata" pn="GRM0335C1E271JA01" type="C0G"
SYMBOL voltage -736 -1408 R0
WINDOW 3 -294 23 Left 2
WINDOW 123 -296 62 Left 2
WINDOW 39 -293 101 Left 2
SYMATTR Value SINE(15 0.1 100000)
SYMATTR Value2 AC 1 0
SYMATTR SpiceLine Rser=0.001
SYMATTR InstName V4
SYMBOL cap -384 -1392 R0
SYMATTR InstName C7
SYMATTR Value 10µ
SYMATTR SpiceLine V=25 Irms=0 Rser=0 Lser=0 mfg="Murata" pn="GRM21BZ71E106KE15" type="X7R"
SYMBOL cap 1440 -1136 R0
SYMATTR InstName C17
SYMATTR Value 10µ
SYMATTR SpiceLine V=25 Irms=0 Rser=0 Lser=0 mfg="Murata" pn="GRM21BZ71E106KE15" type="X7R"
SYMBOL polcap -544 -1392 R0
WINDOW 3 24 56 Left 2
SYMATTR Value 150µ
SYMATTR InstName C18
SYMATTR Description Capacitor
SYMATTR Type cap
SYMATTR SpiceLine V=16 Irms=2.48495 Rser=0.04 Lser=0 mfg="KEMET" pn="T520X157M016ATE040" type="Tantalum"
SYMBOL polcap 1280 -1136 R0
WINDOW 3 24 56 Left 2
SYMATTR Value 150µ
SYMATTR InstName C19
SYMATTR Description Capacitor
SYMATTR Type cap
SYMATTR SpiceLine V=16 Irms=2.48495 Rser=0.04 Lser=0 mfg="KEMET" pn="T520X157M016ATE040" type="Tantalum"
SYMBOL npn 816 -1184 M0
SYMATTR InstName Q8
SYMATTR Value 2N3904
SYMBOL npn 464 -1184 R0
SYMATTR InstName Q9
SYMATTR Value 2N3904
SYMBOL res 624 -1024 R0
SYMATTR InstName R11
SYMATTR Value 43.2
SYMATTR SpiceLine tol=1 pwr=0.1
SYMBOL res 512 -1440 R0
SYMATTR InstName R24
SYMATTR Value 51.1
SYMATTR SpiceLine tol=1 pwr=0.1
SYMBOL pnp 944 -1216 M180
SYMATTR InstName Q10
SYMATTR Value 2SAR512P
SYMBOL res 992 -1440 R0
SYMATTR InstName R26
SYMATTR Value 1
SYMATTR SpiceLine tol=1 pwr=0.1
SYMBOL res 992 -1232 R0
SYMATTR InstName R27
SYMATTR Value 3K
SYMATTR SpiceLine tol=1 pwr=0.1
SYMBOL res 992 -1088 R0
SYMATTR InstName R28
SYMATTR Value 1K
SYMATTR SpiceLine tol=1 pwr=0.1
SYMBOL cap 1120 -1216 R0
SYMATTR InstName C20
SYMATTR Value 0.47µ
SYMATTR SpiceLine V=16 Irms=0 Rser=0 Lser=0 mfg="Murata" pn="GCM188R71C474KA55" type="X7R"
SYMBOL polcap 256 -1088 R0
WINDOW 3 24 56 Left 2
SYMATTR Value 100µ
SYMATTR InstName C22
SYMATTR Description Capacitor
SYMATTR Type cap
SYMATTR SpiceLine V=16 Irms=135m Rser=0.8 Lser=0 mfg="Nichicon" pn="UPR1C101MPH" type="Al electrolytic"
SYMBOL res 256 -1152 R90
WINDOW 0 0 56 VBottom 2
WINDOW 3 32 56 VTop 2
SYMATTR InstName R29
SYMATTR Value 1K
SYMATTR SpiceLine tol=1 pwr=0.1
SYMBOL cap 96 -1088 R0
SYMATTR InstName C23
SYMATTR Value 1µ
SYMATTR SpiceLine V=10 Irms=3.57 Rser=0.0121518 Lser=0 mfg="KEMET" pn="C1206F105K8RAC" type="X7R"
SYMBOL cap 384 -1408 R0
SYMATTR InstName C24
SYMATTR Value 1µ
SYMATTR SpiceLine V=16 Irms=3.41 Rser=0.0133158 Lser=0 mfg="KEMET" pn="C1206C105K4RAC" type="X7R"
SYMBOL cap 1104 -1424 R0
SYMATTR InstName C25
SYMATTR Value 0.1µ
SYMATTR SpiceLine V=6.3 Irms=1.02 Rser=0.0850352 Lser=0 mfg="KEMET" pn="C1206F104K9RAC" type="X7R"
SYMBOL References\\LT1009 -96 -1136 R0
SYMATTR InstName U4
SYMBOL res -112 -1344 R0
SYMATTR InstName R30
SYMATTR Value 2.55K
SYMATTR SpiceLine tol=1 pwr=0.1
SYMBOL cap 352 -1088 R0
SYMATTR InstName C21
SYMATTR Value 1µ
SYMATTR SpiceLine V=10 Irms=3.57 Rser=0.0121518 Lser=0 mfg="KEMET" pn="C1206F105K8RAC" type="X7R"
SYMBOL res 736 -1440 R0
SYMATTR InstName R25
SYMATTR Value 51.1
SYMATTR SpiceLine tol=1 pwr=0.1
TEXT -224 344 Left 2 !.tran .1000
TEXT 1816 216 Left 2 ;set output voltage
